Circuit: * AD8021 Spice Model

Fatal Error: No analysis request found.
