Circuit: * C:\Users\jocke\Documents\Projekt\elektronik\SignalGenerator\Sim\amplifier.asc

WARNING: Node N004 is floating.

WARNING: Less than two connections to node N004.  This node is used by C1.
Direct Newton iteration for .op point succeeded.
Heightened Def Con from 2.00778e-007 to 2.0078e-007
Heightened Def Con from 4.00776e-007 +++++++++to 4.00776e-007
Heightened Def Con from 4.51107e-007 to 4.51107e-007
Heightened Def Con from 5.00777e-007 to 5.00777e-007
Heightened Def Con from 5.00777e-007 to 5.00777e-007
Heightened Def Con from 7.00776e-007 to 7.00776e-007
Heightened Def Con from 7.00776e-007 +++++++++++to 7.00776e-007
Heightened Def Con from 8.51112e-007 to 8.51114e-007
Heightened Def Con from 1.00077e-006 to 1.00077e-006
Heightened Def Con from 1.00077e-006 +++++++++to 1.00077e-006
Heightened Def Con from 1.00077e-006 to 1.00077e-006
Heightened Def Con from 1.00077e-006 to 1.00077e-006
Heightened Def Con from 1.00077e-006 to 1.00077e-006
Heightened Def Con from 1.10078e-006 to 1.10078e-006
Heightened Def Con from 1.10078e-006 to 1.10078e-006
Heightened Def Con from 1.20078e-006 to 1.20078e-006
Heightened Def Con from 1.20078e-006 ++++++++++to 1.20078e-006
Heightened Def Con from 1.20078e-006 ++++++++++to 1.20078e-006
Heightened Def Con from 1.90078e-006 ++++++++to 1.90078e-006
Heightened Def Con from 1.90078e-006 to 1.90078e-006
Heightened Def Con from 1.95111e-006 to 1.95111e-006
Heightened Def Con from 2.00078e-006 to 2.00078e-006
Heightened Def Con from 2.00078e-006 ++++++++++to 2.00078e-006
Heightened Def Con from 2.00078e-006 ++++++++++to 2.00078e-006
Heightened Def Con from 2.50078e-006 ++++to 2.50078e-006
Heightened Def Con from 2.50078e-006 ++++++++++to 2.50078e-006
Heightened Def Con from 2.55111e-006 to 2.55111e-006
Heightened Def Con from 2.55111e-006 to 2.55111e-006
Heightened Def Con from 2.55111e-006 to 2.55111e-006
Heightened Def Con from 2.55111e-006 +++++++to 2.55111e-006
Heightened Def Con from 2.55111e-006 +++++++to 2.55111e-006
Heightened Def Con from 2.60078e-006 ++++++++to 2.60078e-006
Heightened Def Con from 2.60078e-006 +++++++++to 2.60078e-006
Heightened Def Con from 3.30078e-006 to 3.30078e-006
Heightened Def Con from 3.30078e-006 ++++++++to 3.30078e-006
Heightened Def Con from 3.30078e-006 ++++++to 3.30078e-006
Heightened Def Con from 3.35111e-006 ++++++++++to 3.35111e-006
Heightened Def Con from 3.45111e-006 +++++++++to 3.45111e-006
Heightened Def Con from 3.50078e-006 to 3.50078e-006
Heightened Def Con from 3.50078e-006 to 3.50078e-006
Heightened Def Con from 3.50078e-006 to 3.50078e-006
Heightened Def Con from 3.50078e-006 +++++++to 3.50078e-006
Heightened Def Con from 3.50078e-006 +++++++++++to 3.50078e-006
Heightened Def Con from 4.10078e-006 to 4.10078e-006
Heightened Def Con from 4.15111e-006 ++++++++++to 4.15111e-006
Heightened Def Con from 4.25111e-006 +++++++++to 4.25111e-006
Heightened Def Con from 5.10078e-006 ++++++++to 5.10078e-006
Heightened Def Con from 5.10078e-006 +++++++++to 5.10078e-006
Heightened Def Con from 5.15111e-006 +++++++++to 5.15111e-006
Heightened Def Con from 5.20078e-006 to 5.20078e-006
Heightened Def Con from 5.40078e-006 ++++++++to 5.40078e-006
Heightened Def Con from 5.40078e-006 ++++++++++to 5.40078e-006
Heightened Def Con from 5.55111e-006 to 5.55111e-006
Heightened Def Con from 6.10078e-006 to 6.10078e-006
Heightened Def Con from 6.10078e-006 to 6.10078e-006
Heightened Def Con from 6.10078e-006 to 6.10078e-006
Heightened Def Con from 6.10078e-006 to 6.10078e-006
Heightened Def Con from 6.10078e-006 to 6.10078e-006
Heightened Def Con from 6.10078e-006 +++++++to 6.10078e-006
Heightened Def Con from 6.10078e-006 to 6.10078e-006
Heightened Def Con from 6.15111e-006 +++++++++to 6.15111e-006
Heightened Def Con from 6.20078e-006 to 6.20078e-006
Heightened Def Con from 6.70078e-006 to 6.70078e-006
Heightened Def Con from 6.70078e-006 to 6.70078e-006
Heightened Def Con from 6.75111e-006 ++++++++to 6.75111e-006
Heightened Def Con from 6.80078e-006 +++++++++to 6.80078e-006
Heightened Def Con from 6.80078e-006 to 6.80078e-006
Heightened Def Con from 6.80078e-006 to 6.80078e-006
Heightened Def Con from 7.00078e-006 to 7.00078e-006
Heightened Def Con from 7.00078e-006 to 7.00078e-006
Heightened Def Con from 7.15111e-006 +++++++++to 7.15111e-006
Heightened Def Con from 7.30077e-006 to 7.30077e-006
Heightened Def Con from 7.40078e-006 to 7.40078e-006
Heightened Def Con from 7.50078e-006 to 7.50078e-006
Heightened Def Con from 7.50078e-006 to 7.50078e-006
Heightened Def Con from 7.50078e-006 to 7.50078e-006
Heightened Def Con from 7.50078e-006 to 7.50078e-006
Heightened Def Con from 7.50078e-006 to 7.50078e-006
Heightened Def Con from 7.50078e-006 to 7.50078e-006
Heightened Def Con from 7.50078e-006 to 7.50078e-006
Heightened Def Con from 7.50078e-006 to 7.50078e-006
Heightened Def Con from 7.60078e-006 to 7.60078e-006
Heightened Def Con from 7.65111e-006 to 7.65111e-006
Heightened Def Con from 7.70078e-006 to 7.70078e-006
Heightened Def Con from 7.70078e-006 +++to 7.70078e-006
Heightened Def Con from 7.70078e-006 to 7.70078e-006
Heightened Def Con from 7.90078e-006 to 7.90078e-006
Heightened Def Con from 7.90078e-006 to 7.90078e-006
Heightened Def Con from 7.90078e-006 to 7.90078e-006
Heightened Def Con from 7.90078e-006 to 7.90078e-006
Heightened Def Con from 7.90078e-006 to 7.90078e-006
Heightened Def Con from 7.90078e-006 ++++++to 7.90078e-006
Heightened Def Con from 7.90078e-006 to 7.90078e-006
Heightened Def Con from 8.10078e-006 to 8.10078e-006
Heightened Def Con from 8.10078e-006 ++++++++++to 8.10078e-006
Heightened Def Con from 8.10078e-006 ++++++++++to 8.10078e-006
Heightened Def Con from 8.25111e-006 to 8.25111e-006
Heightened Def Con from 8.50078e-006 ++++++to 8.50078e-006
Heightened Def Con from 8.50078e-006 ++++++++++to 8.50078e-006
Heightened Def Con from 8.55111e-006 to 8.55111e-006
Heightened Def Con from 8.55111e-006 to 8.55111e-006
Heightened Def Con from 8.55111e-006 +++++to 8.55111e-006
Heightened Def Con from 8.55111e-006 to 8.55111e-006
Heightened Def Con from 8.60078e-006 to 8.60078e-006
Heightened Def Con from 8.80078e-006 ++++++++to 8.80078e-006
Heightened Def Con from 8.80078e-006 ++++++++++to 8.80078e-006
Heightened Def Con from 8.95111e-006 ++++++++++to 8.95111e-006
Heightened Def Con from 9.10077e-006 to 9.10077e-006
Heightened Def Con from 9.10077e-006 to 9.10077e-006
Heightened Def Con from 9.20078e-006 to 9.20078e-006
Heightened Def Con from 9.20078e-006 to 9.20078e-006
Heightened Def Con from 9.30078e-006 to 9.30078e-006
Heightened Def Con from 9.30078e-006 to 9.30078e-006
Heightened Def Con from 9.40077e-006 to 9.40077e-006
Heightened Def Con from 9.50078e-006 +++++to 9.50078e-006
Heightened Def Con from 9.50078e-006 to 9.50078e-006
Heightened Def Con from 9.60078e-006 to 9.60078e-006
Heightened Def Con from 9.60078e-006 ++++++++++to 9.60078e-006
Heightened Def Con from 9.60078e-006 ++++++++++to 9.60078e-006
Heightened Def Con from 1.03008e-005 ++++++++++to 1.03008e-005
Heightened Def Con from 1.03008e-005 ++++++++++to 1.03008e-005
Heightened Def Con from 1.03511e-005 to 1.03511e-005
Heightened Def Con from 1.04008e-005 to 1.04008e-005
Heightened Def Con from 1.11008e-005 to 1.11008e-005
Heightened Def Con from 1.13008e-005 to 1.13008e-005
Heightened Def Con from 1.14008e-005 to 1.14008e-005
Heightened Def Con from 1.14008e-005 +++++++++to 1.14008e-005
Heightened Def Con from 1.14008e-005 to 1.14008e-005
Heightened Def Con from 1.15008e-005 to 1.15008e-005
Heightened Def Con from 1.15008e-005 to 1.15008e-005
Heightened Def Con from 1.16008e-005 ++++++++++to 1.16008e-005
Heightened Def Con from 1.20008e-005 to 1.20008e-005
Heightened Def Con from 1.21511e-005 +++++++++++to 1.21511e-005
Heightened Def Con from 1.23008e-005 to 1.23008e-005
Heightened Def Con from 1.23008e-005 +++++++++++to 1.23008e-005
Heightened Def Con from 1.24008e-005 to 1.24008e-005
Heightened Def Con from 1.24008e-005 ++++++++++to 1.24008e-005
Heightened Def Con from 1.24008e-005 ++++++++++to 1.24008e-005
Heightened Def Con from 1.24511e-005 to 1.24511e-005
Heightened Def Con from 1.25008e-005 ++++to 1.25008e-005
Heightened Def Con from 1.25008e-005 ++++++++++to 1.25008e-005
Heightened Def Con from 1.27008e-005 ++++++++++to 1.27008e-005
Heightened Def Con from 1.27008e-005 to 1.27008e-005
Heightened Def Con from 1.27008e-005 to 1.27008e-005
Heightened Def Con from 1.27008e-005 to 1.27008e-005
Heightened Def Con from 1.27008e-005 +++++to 1.27008e-005
Heightened Def Con from 1.27008e-005 +++++++to 1.27008e-005
Heightened Def Con from 1.28511e-005 to 1.28511e-005
Heightened Def Con from 1.31008e-005 +++++++to 1.31008e-005
Heightened Def Con from 1.31008e-005 +++++++++to 1.31008e-005
Heightened Def Con from 1.36008e-005 to 1.36008e-005
Heightened Def Con from 1.36008e-005 to 1.36008e-005
Heightened Def Con from 1.39511e-005 +++++++to 1.39511e-005
Heightened Def Con from 1.42008e-005 to 1.42008e-005
Heightened Def Con from 1.42008e-005 ++++++++++to 1.42008e-005
Heightened Def Con from 1.42008e-005 to 1.42008e-005
Heightened Def Con from 1.42008e-005 to 1.42008e-005
Heightened Def Con from 1.42008e-005 to 1.42008e-005
Heightened Def Con from 1.42008e-005 to 1.42008e-005
Heightened Def Con from 1.42511e-005 to 1.42511e-005
Heightened Def Con from 1.43008e-005 ++++++++to 1.43008e-005
Heightened Def Con from 1.43008e-005 to 1.43008e-005
Heightened Def Con from 1.50008e-005 to 1.50008e-005
Heightened Def Con from 1.50008e-005 to 1.50008e-005
Heightened Def Con from 1.50008e-005 to 1.50008e-005
Heightened Def Con from 1.50008e-005 to 1.50008e-005
Heightened Def Con from 1.50008e-005 to 1.50008e-005
Heightened Def Con from 1.50008e-005 +++++++++++to 1.50008e-005
Heightened Def Con from 1.53008e-005 +++to 1.53008e-005
Heightened Def Con from 1.53008e-005 +++++++to 1.53008e-005
Heightened Def Con from 1.56008e-005 +++++++to 1.56008e-005
Heightened Def Con from 1.56008e-005 +++++++++to 1.56008e-005
Heightened Def Con from 1.56511e-005 +++++++++to 1.56511e-005
Heightened Def Con from 1.59008e-005 +++++++to 1.59008e-005
Heightened Def Con from 1.59008e-005 ++++++++++to 1.59008e-005
Heightened Def Con from 1.60008e-005 +++++++to 1.60008e-005
Heightened Def Con from 1.60008e-005 to 1.60008e-005
Heightened Def Con from 1.61008e-005 to 1.61008e-005
Heightened Def Con from 1.64511e-005 to 1.64511e-005
Heightened Def Con from 1.70008e-005 +++++++++to 1.70008e-005
Heightened Def Con from 1.71008e-005 to 1.71038e-005
Heightened Def Con from 1.76008e-005 to 1.76008e-005
Heightened Def Con from 1.77511e-005 ++++++++++to 1.77511e-005
Heightened Def Con from 1.79008e-005 to 1.79008e-005
Heightened Def Con from 1.80008e-005 to 1.80008e-005
Heightened Def Con from 1.80008e-005 +++++++++to 1.80008e-005
Heightened Def Con from 1.85008e-005 +++++++++to 1.85008e-005
Heightened Def Con from 1.85008e-005 ++++++++++to 1.85008e-005
Heightened Def Con from 1.86511e-005 to 1.86511e-005
Heightened Def Con from 1.88008e-005 to 1.88008e-005
Heightened Def Con from 1.88008e-005 ++++++++++to 1.88008e-005
Heightened Def Con from 1.89008e-005 to 1.89008e-005
Heightened Def Con from 1.89008e-005 ++++++++++to 1.89008e-005
Heightened Def Con from 1.89008e-005 ++++++++++to 1.89008e-005
Heightened Def Con from 1.89511e-005 to 1.89511e-005
Heightened Def Con from 1.90008e-005 +++++++++to 1.90008e-005
Heightened Def Con from 1.92008e-005 to 1.92008e-005
Heightened Def Con from 1.93511e-005 to 1.93511e-005
Heightened Def Con from 1.93511e-005 to 1.93511e-005
Heightened Def Con from 1.93511e-005 to 1.93511e-005
Heightened Def Con from 1.93511e-005 +++++++to 1.93511e-005
Heightened Def Con from 1.93511e-005 +++++++to 1.93511e-005
Heightened Def Con from 1.97511e-005 to 1.97511e-005
Heightened Def Con from 2.05008e-005 +++++++++to 2.05008e-005
Heightened Def Con from 2.05008e-005 ++++++++++to 2.05008e-005
Heightened Def Con from 2.06008e-005 ++++++++to 2.06008e-005
Heightened Def Con from 2.06008e-005 ++++++++++to 2.06008e-005
Heightened Def Con from 2.07008e-005 +++++to 2.07008e-005
Heightened Def Con from 2.07008e-005 ++++++++++to 2.07008e-005
Heightened Def Con from 2.08008e-005 to 2.08008e-005
Heightened Def Con from 2.13008e-005 to 2.13008e-005
Heightened Def Con from 2.14511e-005 to 2.14511e-005
Heightened Def Con from 2.14511e-005 to 2.14511e-005
Heightened Def Con from 2.21008e-005 ++++++++to 2.21008e-005
Heightened Def Con from 2.21008e-005 +++++++++to 2.21008e-005
Heightened Def Con from 2.21511e-005 to 2.21511e-005
Heightened Def Con from 2.23008e-005 +++++++to 2.23008e-005
Heightened Def Con from 2.23008e-005 ++++++++++to 2.23008e-005
Heightened Def Con from 2.23511e-005 to 2.23511e-005
Heightened Def Con from 2.24008e-005 to 2.24008e-005
Heightened Def Con from 2.26008e-005 +++++++++to 2.26008e-005
Heightened Def Con from 2.26008e-005 to 2.26008e-005
Heightened Def Con from 2.27511e-005 to 2.27511e-005
Heightened Def Con from 2.29008e-005 to 2.29008e-005
Heightened Def Con from 2.29008e-005 to 2.29008e-005
Heightened Def Con from 2.30008e-005 to 2.30008e-005
Heightened Def Con from 2.30008e-005 to 2.30008e-005
Heightened Def Con from 2.31008e-005 to 2.31008e-005
Heightened Def Con from 2.36008e-005 ++++++++to 2.36008e-005
Heightened Def Con from 2.36008e-005 ++++++++to 2.36008e-005
Heightened Def Con from 2.36008e-005 to 2.36008e-005
Heightened Def Con from 2.36511e-005 to 2.36511e-005
Heightened Def Con from 2.36511e-005 to 2.36511e-005
Heightened Def Con from 2.36511e-005 ++++++++to 2.36511e-005
Heightened Def Con from 2.37008e-005 to 2.37008e-005
Heightened Def Con from 2.39008e-005 ++++++++to 2.39008e-005
Heightened Def Con from 2.39008e-005 ++++++++++to 2.39008e-005
Heightened Def Con from 2.40511e-005 +++++++++++to 2.40511e-005
Heightened Def Con from 2.42008e-005 to 2.42008e-005
Heightened Def Con from 2.42008e-005 to 2.42008e-005
Heightened Def Con from 2.43008e-005 to 2.43008e-005
Heightened Def Con from 2.43008e-005 to 2.43008e-005
Heightened Def Con from 2.43008e-005 to 2.43008e-005
Heightened Def Con from 2.43008e-005 to 2.43008e-005
Heightened Def Con from 2.43008e-005 ++++++++to 2.43008e-005
Heightened Def Con from 2.44008e-005 to 2.44008e-005
Heightened Def Con from 2.44008e-005 ++++++++++to 2.44008e-005
Heightened Def Con from 2.44008e-005 ++++++++++to 2.44008e-005
Heightened Def Con from 2.48008e-005 to 2.48008e-005
Heightened Def Con from 2.48008e-005 ++++++++to 2.48008e-005
Heightened Def Con from 2.48511e-005 to 2.48511e-005
Heightened Def Con from 2.48511e-005 to 2.48511e-005
Heightened Def Con from 2.48511e-005 to 2.48511e-005
Heightened Def Con from 2.48511e-005 to 2.48511e-005
Heightened Def Con from 2.48511e-005 ++++++to 2.48511e-005
Heightened Def Con from 2.48511e-005 to 2.48511e-005
Heightened Def Con from 2.49008e-005 +++++++to 2.49008e-005
Heightened Def Con from 2.49008e-005 ++++++++++to 2.49008e-005
Heightened Def Con from 2.51008e-005 to 2.51008e-005
Heightened Def Con from 2.51008e-005 ++++++++++to 2.51008e-005
Heightened Def Con from 2.51008e-005 to 2.51008e-005
Heightened Def Con from 2.51008e-005 to 2.51008e-005
Heightened Def Con from 2.51008e-005 to 2.51008e-005
Heightened Def Con from 2.52511e-005 +++++++++to 2.52511e-005
Heightened Def Con from 2.53008e-005 to 2.53008e-005
Heightened Def Con from 2.59008e-005 ++++++++++to 2.59008e-005
Heightened Def Con from 2.59008e-005 to 2.59008e-005
Heightened Def Con from 2.59008e-005 to 2.59008e-005
Heightened Def Con from 2.59008e-005 to 2.59008e-005
Heightened Def Con from 2.60008e-005 +++++++++to 2.60008e-005
Heightened Def Con from 2.60008e-005 ++++++++++to 2.60008e-005
Heightened Def Con from 2.65008e-005 to 2.65008e-005
Heightened Def Con from 2.65008e-005 ++++++++++to 2.65008e-005
Heightened Def Con from 2.65008e-005 ++++++++++to 2.65008e-005
Heightened Def Con from 2.67511e-005 to 2.67511e-005
Heightened Def Con from 2.70008e-005 to 2.70008e-005
Heightened Def Con from 2.70008e-005 +++++++to 2.70008e-005
Heightened Def Con from 2.70008e-005 to 2.70008e-005
Heightened Def Con from 2.71008e-005 ++++++++to 2.71008e-005
Heightened Def Con from 2.71008e-005 to 2.71008e-005
Heightened Def Con from 2.78008e-005 to 2.78008e-005
Heightened Def Con from 2.78008e-005 to 2.78008e-005
Heightened Def Con from 2.79008e-005 +++++++++to 2.79008e-005
Heightened Def Con from 2.79008e-005 ++++++++++to 2.79008e-005
Heightened Def Con from 2.85008e-005 to 2.85008e-005
Heightened Def Con from 2.86008e-005 to 2.86008e-005
Heightened Def Con from 2.95008e-005 to 2.95008e-005
Heightened Def Con from 2.95511e-005 +++++++++to 2.95511e-005
Heightened Def Con from 2.96511e-005 +++++to 2.96511e-005
Heightened Def Con from 3.01008e-005 to 3.01008e-005
Heightened Def Con from 3.01008e-005 to 3.01008e-005
Heightened Def Con from 3.01008e-005 to 3.01008e-005
Heightened Def Con from 3.01008e-005 to 3.01008e-005
Heightened Def Con from 3.01008e-005 to 3.01008e-005
Heightened Def Con from 3.01008e-005 to 3.01008e-005
Heightened Def Con from 3.02511e-005 to 3.02511e-005
Heightened Def Con from 3.04008e-005 ++++++to 3.04008e-005
Heightened Def Con from 3.04008e-005 ++++++++++to 3.04008e-005
Heightened Def Con from 3.05008e-005 to 3.05008e-005
Heightened Def Con from 3.05008e-005 ++++++++++to 3.05008e-005
Heightened Def Con from 3.05008e-005 ++++++++++to 3.05008e-005
Heightened Def Con from 3.05511e-005 to 3.05511e-005
Heightened Def Con from 3.06008e-005 +++++++++to 3.06008e-005
Heightened Def Con from 3.08008e-005 to 3.08008e-005
Heightened Def Con from 3.10008e-005 ++++++++to 3.10008e-005
Heightened Def Con from 3.10008e-005 to 3.10008e-005
Heightened Def Con from 3.10008e-005 to 3.10008e-005
Heightened Def Con from 3.10008e-005 ++++++++++to 3.10008e-005
Heightened Def Con from 3.10008e-005 to 3.10008e-005
Heightened Def Con from 3.11511e-005 ++++++++++to 3.11511e-005
Heightened Def Con from 3.13008e-005 to 3.13008e-005
Heightened Def Con from 3.13008e-005 +++++++++++to 3.13008e-005
Heightened Def Con from 3.15511e-005 to 3.15511e-005
Heightened Def Con from 3.16008e-005 +++++to 3.16008e-005
Heightened Def Con from 3.16008e-005 ++++++++++to 3.16008e-005
Heightened Def Con from 3.16511e-005 +++++++++to 3.16511e-005
Heightened Def Con from 3.20008e-005 ++++++++++to 3.20008e-005
Heightened Def Con from 3.20511e-005 +++++++++to 3.20511e-005
Heightened Def Con from 3.21008e-005 +++++++++++to 3.21008e-005
Heightened Def Con from 3.26008e-005 ++++++++to 3.26008e-005
Heightened Def Con from 3.26008e-005 +++++++to 3.26008e-005
Heightened Def Con from 3.26008e-005 to 3.26008e-005
Heightened Def Con from 3.26008e-005 to 3.26008e-005
Heightened Def Con from 3.26008e-005 +++++++to 3.26008e-005
Heightened Def Con from 3.26008e-005 +++++++to 3.26008e-005
Heightened Def Con from 3.26511e-005 to 3.26511e-005
Heightened Def Con from 3.26511e-005 to 3.26511e-005
Heightened Def Con from 3.27008e-005 to 3.27008e-005
Heightened Def Con from 3.27008e-005 ++++++to 3.27008e-005
Heightened Def Con from 3.27008e-005 to 3.27008e-005
Heightened Def Con from 3.29008e-005 to 3.29008e-005
Heightened Def Con from 3.29008e-005 to 3.29008e-005
Heightened Def Con from 3.30511e-005 to 3.30511e-005
Heightened Def Con from 3.30511e-005 to 3.30511e-005
Heightened Def Con from 3.30511e-005 to 3.30511e-005
Heightened Def Con from 3.30511e-005 to 3.30511e-005
Heightened Def Con from 3.32008e-005 to 3.32008e-005
Heightened Def Con from 3.33008e-005 to 3.33008e-005
Heightened Def Con from 3.33008e-005 ++++++++++to 3.33008e-005
Heightened Def Con from 3.33008e-005 ++++++++++to 3.33008e-005
Heightened Def Con from 3.33511e-005 to 3.33511e-005
Heightened Def Con from 3.34008e-005 ++++++++++to 3.34008e-005
Heightened Def Con from 3.34008e-005 ++++++++++to 3.34008e-005
Heightened Def Con from 3.41008e-005 to 3.41008e-005
Heightened Def Con from 3.41008e-005 to 3.41008e-005
Heightened Def Con from 3.41511e-005 to 3.41511e-005
Heightened Def Con from 3.41511e-005 to 3.41511e-005
Heightened Def Con from 3.41511e-005 to 3.41511e-005
Heightened Def Con from 3.41511e-005 to 3.41511e-005
Heightened Def Con from 3.41511e-005 to 3.41511e-005
Heightened Def Con from 3.42008e-005 to 3.42008e-005
Heightened Def Con from 3.42008e-005 ++++++++++to 3.42008e-005
Heightened Def Con from 3.44008e-005 to 3.44008e-005
Heightened Def Con from 3.44008e-005 ++++++++++to 3.44008e-005
Heightened Def Con from 3.44008e-005 to 3.44008e-005
Heightened Def Con from 3.45511e-005 +++++++to 3.45511e-005
Heightened Def Con from 3.45511e-005 to 3.45511e-005
Heightened Def Con from 3.49008e-005 ++++++++to 3.49008e-005
Heightened Def Con from 3.49008e-005 ++++++++to 3.49008e-005
Heightened Def Con from 3.49008e-005 to 3.49008e-005
Heightened Def Con from 3.49008e-005 to 3.49008e-005
Heightened Def Con from 3.49008e-005 to 3.49008e-005
Heightened Def Con from 3.49008e-005 to 3.49008e-005
Heightened Def Con from 3.49008e-005 +++++++++++to 3.49008e-005
Heightened Def Con from 3.49008e-005 +++++++++++to 3.49008e-005
Heightened Def Con from 3.49008e-005 to 3.49008e-005
Heightened Def Con from 3.58008e-005 to 3.58008e-005
Heightened Def Con from 3.58008e-005 +++++++++to 3.58008e-005
Heightened Def Con from 3.58008e-005 to 3.58008e-005
Heightened Def Con from 3.58008e-005 to 3.58008e-005
Heightened Def Con from 3.59008e-005 to 3.59008e-005
Heightened Def Con from 3.59008e-005 to 3.59008e-005
Heightened Def Con from 3.59008e-005 ++++++to 3.59008e-005
Heightened Def Con from 3.59008e-005 +++++++++++to 3.59008e-005
Heightened Def Con from 3.59511e-005 to 3.59511e-005
Heightened Def Con from 3.59511e-005 to 3.59511e-005
Heightened Def Con from 3.59511e-005 +++++++to 3.59511e-005
Heightened Def Con from 3.59511e-005 +++++++to 3.59511e-005
Heightened Def Con from 3.60008e-005 +++++to 3.60008e-005
Heightened Def Con from 3.62008e-005 to 3.62008e-005
Heightened Def Con from 3.62008e-005 +++++++++to 3.62008e-005
Heightened Def Con from 3.62008e-005 to 3.62008e-005
Heightened Def Con from 3.62008e-005 to 3.62008e-005
Heightened Def Con from 3.62008e-005 ++++++++++to 3.62008e-005
Heightened Def Con from 3.62008e-005 +++++++++to 3.62008e-005
Heightened Def Con from 3.62008e-005 ++++++++to 3.62008e-005
Heightened Def Con from 3.63511e-005 to 3.63511e-005
Heightened Def Con from 3.66008e-005 ++++++to 3.66008e-005
Heightened Def Con from 3.66008e-005 ++++++++++to 3.66008e-005
Heightened Def Con from 3.67008e-005 to 3.67008e-005
Heightened Def Con from 3.67008e-005 to 3.67008e-005
Heightened Def Con from 3.67511e-005 to 3.67511e-005
Heightened Def Con from 3.67511e-005 to 3.67511e-005
Heightened Def Con from 3.67511e-005 ++++++to 3.67511e-005
Heightened Def Con from 3.67511e-005 ++++++to 3.67511e-005
Heightened Def Con from 3.68008e-005 to 3.68008e-005
Heightened Def Con from 3.68008e-005 ++++++++to 3.68008e-005
Heightened Def Con from 3.68008e-005 to 3.68008e-005
Heightened Def Con from 3.75008e-005 to 3.75008e-005
Heightened Def Con from 3.75008e-005 ++++++++to 3.75008e-005
Heightened Def Con from 3.75008e-005 to 3.75008e-005
Heightened Def Con from 3.75511e-005 to 3.75511e-005
Heightened Def Con from 3.76008e-005 +++++++++to 3.76008e-005
Heightened Def Con from 3.76008e-005 to 3.76008e-005
Heightened Def Con from 3.83008e-005 +++++++++to 3.83008e-005
Heightened Def Con from 3.83511e-005 to 3.83511e-005
Heightened Def Con from 3.84008e-005 +++++to 3.84008e-005
Heightened Def Con from 3.84008e-005 ++++++++++to 3.84008e-005
Heightened Def Con from 3.86008e-005 ++++++++++to 3.86008e-005
Heightened Def Con from 3.92008e-005 to 3.92008e-005
Heightened Def Con from 3.92008e-005 to 3.92008e-005
Heightened Def Con from 3.92008e-005 ++to 3.92008e-005
Heightened Def Con from 3.92008e-005 +++++++to 3.92008e-005
Heightened Def Con from 3.92511e-005 ++++++++++to 3.92511e-005
Heightened Def Con from 3.93008e-005 to 3.93008e-005
Heightened Def Con from 4.00008e-005 to 4.00008e-005
Heightened Def Con from 4.00008e-005 to 4.00008e-005
Heightened Def Con from 4.00008e-005 to 4.00008e-005
Heightened Def Con from 4.00008e-005 to 4.00008e-005
Heightened Def Con from 4.01008e-005 ++++++++to 4.01008e-005
Heightened Def Con from 4.01008e-005 ++++++++++to 4.01008e-005
Heightened Def Con from 4.02008e-005 to 4.02008e-005
Heightened Def Con from 4.02008e-005 +++++++++to 4.02008e-005
Heightened Def Con from 4.02008e-005 to 4.02008e-005
Heightened Def Con from 4.02008e-005 to 4.02008e-005
Heightened Def Con from 4.03008e-005 to 4.03008e-005
Heightened Def Con from 4.03008e-005 +++++++++to 4.03008e-005
Heightened Def Con from 4.03008e-005 to 4.03008e-005
Heightened Def Con from 4.04008e-005 ++++++++to 4.04008e-005
Heightened Def Con from 4.04008e-005 to 4.04008e-005
Heightened Def Con from 4.06511e-005 to 4.06511e-005
Heightened Def Con from 4.07008e-005 to 4.07008e-005
Heightened Def Con from 4.13008e-005 to 4.13008e-005
Heightened Def Con from 4.13008e-005 to 4.13008e-005
Heightened Def Con from 4.13008e-005 to 4.13008e-005
Heightened Def Con from 4.13008e-005 to 4.13008e-005
Heightened Def Con from 4.13008e-005 to 4.13008e-005
Heightened Def Con from 4.13008e-005 to 4.13008e-005
Heightened Def Con from 4.14008e-005 to 4.14008e-005
Heightened Def Con from 4.14511e-005 to 4.14511e-005
Heightened Def Con from 4.14511e-005 +++++++++to 4.14511e-005
Heightened Def Con from 4.15008e-005 to 4.15038e-005
Heightened Def Con from 4.17008e-005 +++++to 4.17008e-005
Heightened Def Con from 4.17008e-005 to 4.17008e-005
Heightened Def Con from 4.17511e-005 ++++++++++to 4.17511e-005
Heightened Def Con from 4.18008e-005 +++++++to 4.18008e-005
Heightened Def Con from 4.18008e-005 ++++++++++to 4.18008e-005
Heightened Def Con from 4.20008e-005 +++++++to 4.20008e-005
Heightened Def Con from 4.20008e-005 +++++++++to 4.20008e-005
Heightened Def Con from 4.21511e-005 +++++++++to 4.21511e-005
Heightened Def Con from 4.23008e-005 to 4.23008e-005
Heightened Def Con from 4.23008e-005 ++++++++to 4.23008e-005
Heightened Def Con from 4.23008e-005 to 4.23008e-005
Heightened Def Con from 4.25511e-005 +++++++++to 4.25511e-005
Heightened Def Con from 4.26008e-005 ++++++to 4.26008e-005
Heightened Def Con from 4.26008e-005 to 4.26008e-005
Heightened Def Con from 4.26008e-005 to 4.26008e-005
Heightened Def Con from 4.26008e-005 to 4.26008e-005
Heightened Def Con from 4.27511e-005 +++++++++++to 4.27511e-005
Heightened Def Con from 4.37008e-005 to 4.37008e-005
Heightened Def Con from 4.37008e-005 ++++++to 4.37008e-005
Heightened Def Con from 4.37008e-005 to 4.37008e-005
Heightened Def Con from 4.37511e-005 to 4.37511e-005
Heightened Def Con from 4.38008e-005 to 4.38008e-005
Heightened Def Con from 4.40008e-005 to 4.40008e-005
Heightened Def Con from 4.40008e-005 to 4.40008e-005
Heightened Def Con from 4.41511e-005 to 4.41511e-005
Heightened Def Con from 4.43008e-005 ++++++++to 4.43008e-005
Heightened Def Con from 4.43008e-005 +++++++++to 4.43008e-005
Heightened Def Con from 4.44008e-005 to 4.44008e-005
Heightened Def Con from 4.44008e-005 ++++++to 4.44008e-005
Heightened Def Con from 4.44008e-005 to 4.44008e-005
Heightened Def Con from 4.44008e-005 +++to 4.44008e-005
Heightened Def Con from 4.44008e-005 to 4.44008e-005
Heightened Def Con from 4.45008e-005 to 4.45008e-005
Heightened Def Con from 4.45008e-005 to 4.45008e-005
Heightened Def Con from 4.49008e-005 to 4.49008e-005
Heightened Def Con from 4.49008e-005 +++++++++to 4.49008e-005
Heightened Def Con from 4.49008e-005 to 4.49008e-005
Heightened Def Con from 4.49511e-005 +++++++to 4.49511e-005
Heightened Def Con from 4.49511e-005 to 4.49511e-005
Heightened Def Con from 4.49511e-005 +++++++to 4.49511e-005
Heightened Def Con from 4.49511e-005 +++++++to 4.49511e-005
Heightened Def Con from 4.50008e-005 ++++++++to 4.50008e-005
Heightened Def Con from 4.50008e-005 to 4.50008e-005
Heightened Def Con from 4.52008e-005 to 4.52008e-005
Heightened Def Con from 4.52008e-005 to 4.52008e-005
Heightened Def Con from 4.52008e-005 to 4.52008e-005
Heightened Def Con from 4.52008e-005 to 4.52008e-005
Heightened Def Con from 4.52008e-005 +++++++++++to 4.52008e-005
Heightened Def Con from 4.53511e-005 to 4.53511e-005
Heightened Def Con from 4.53511e-005 to 4.53511e-005
Heightened Def Con from 4.53511e-005 +++++++to 4.53511e-005
Heightened Def Con from 4.53511e-005 +++++++to 4.53511e-005
Heightened Def Con from 4.55008e-005 to 4.55008e-005
Heightened Def Con from 4.55008e-005 +++++++++++to 4.55008e-005
Heightened Def Con from 4.57511e-005 to 4.57511e-005
Heightened Def Con from 4.58008e-005 to 4.58008e-005
Heightened Def Con from 4.64008e-005 +++++++to 4.64008e-005
Heightened Def Con from 4.64008e-005 +++++++++to 4.64008e-005
Heightened Def Con from 4.64511e-005 to 4.64511e-005
Heightened Def Con from 4.65008e-005 to 4.65008e-005
Heightened Def Con from 4.65008e-005 ++++++++++to 4.65008e-005
Heightened Def Con from 4.65008e-005 ++++++++++to 4.65008e-005
Heightened Def Con from 4.67008e-005 to 4.67008e-005
Heightened Def Con from 4.67008e-005 ++++++++++to 4.67008e-005
Heightened Def Con from 4.67008e-005 ++++++++++to 4.67008e-005
Heightened Def Con from 4.68511e-005 to 4.68511e-005
Heightened Def Con from 4.75008e-005 ++++++++to 4.75008e-005
Heightened Def Con from 4.75511e-005 ++++++++++to 4.75511e-005
Heightened Def Con from 4.76008e-005 ++++++to 4.76008e-005
Heightened Def Con from 4.76008e-005 to 4.76008e-005
Heightened Def Con from 4.83008e-005 to 4.83008e-005
Heightened Def Con from 4.83008e-005 to 4.83008e-005
Heightened Def Con from 4.83511e-005 +++++++++to 4.83511e-005
Heightened Def Con from 4.84008e-005 to 4.84008e-005
Heightened Def Con from 4.92008e-005 ++++++++to 4.92008e-005
Heightened Def Con from 4.93008e-005 +++++++++to 4.93008e-005
Heightened Def Con from 4.93008e-005 ++++++++++to 4.93008e-005
Heightened Def Con from 4.94008e-005 to 4.94008e-005
Heightened Def Con from 4.94008e-005 to 4.94008e-005
Heightened Def Con from 4.97008e-005 +++++++++to 4.97008e-005
Heightened Def Con from 4.98008e-005 to 4.98008e-005
Heightened Def Con from 4.98008e-005 ++++++++++to 4.98008e-005
Heightened Def Con from 4.98008e-005 to 4.98008e-005
Heightened Def Con from 4.99008e-005 +++++++++to 4.99008e-005
Heightened Def Con from 4.99008e-005 to 4.99008e-005
Heightened Def Con from 5.00008e-005 ++++to 5.00008e-005
Heightened Def Con from 5.00008e-005 ++++++++++to 5.00008e-005
Heightened Def Con from 5.00511e-005 +++++++++to 5.00511e-005
Heightened Def Con from 5.01008e-005 to 5.01008e-005
Heightened Def Con from 5.01008e-005 +++++++++to 5.01008e-005
Heightened Def Con from 5.01008e-005 ++++++++++to 5.01008e-005
Heightened Def Con from 5.08008e-005 +++++++++to 5.08008e-005
Heightened Def Con from 5.08008e-005 ++++++++++to 5.08008e-005
Heightened Def Con from 5.08511e-005 +++++++++to 5.08511e-005
Heightened Def Con from 5.09008e-005 to 5.09008e-005
Heightened Def Con from 5.16008e-005 to 5.16008e-005
Heightened Def Con from 5.19511e-005 ++++to 5.19511e-005
Heightened Def Con from 5.20008e-005 to 5.20008e-005
Heightened Def Con from 5.20008e-005 ++++++++to 5.20008e-005
Heightened Def Con from 5.20008e-005 to 5.20008e-005
Heightened Def Con from 5.29008e-005 ++++++++to 5.29008e-005
Heightened Def Con from 5.29008e-005 to 5.29008e-005
Heightened Def Con from 5.30008e-005 +++++++to 5.30008e-005
Heightened Def Con from 5.30008e-005 to 5.30008e-005
Heightened Def Con from 5.30008e-005 to 5.30008e-005
Heightened Def Con from 5.33008e-005 to 5.33008e-005
Heightened Def Con from 5.33008e-005 +++++++to 5.33008e-005
Heightened Def Con from 5.33008e-005 +++++++to 5.33008e-005
Heightened Def Con from 5.33008e-005 to 5.33008e-005
Heightened Def Con from 5.33008e-005 to 5.33008e-005
Heightened Def Con from 5.35008e-005 to 5.35008e-005
Heightened Def Con from 5.35008e-005 +++++++++to 5.35008e-005
Heightened Def Con from 5.36008e-005 to 5.36008e-005
Heightened Def Con from 5.36008e-005 ++++++++++to 5.36008e-005
Heightened Def Con from 5.36008e-005 ++++++++++to 5.36008e-005
Heightened Def Con from 5.37008e-005 ++++to 5.37008e-005
Heightened Def Con from 5.37008e-005 to 5.37008e-005
Heightened Def Con from 5.37008e-005 to 5.37008e-005
Heightened Def Con from 5.38008e-005 to 5.38008e-005
Heightened Def Con from 5.39008e-005 to 5.39008e-005
Heightened Def Con from 5.39511e-005 +++to 5.39511e-005
Heightened Def Con from 5.46008e-005 to 5.46008e-005
Heightened Def Con from 5.46008e-005 ++++++++++to 5.46008e-005
Heightened Def Con from 5.46008e-005 to 5.46008e-005
Heightened Def Con from 5.46511e-005 to 5.46511e-005
Heightened Def Con from 5.46511e-005 to 5.46511e-005
Heightened Def Con from 5.47008e-005 to 5.47008e-005
Heightened Def Con from 5.47008e-005 +++++++++to 5.47008e-005
Heightened Def Con from 5.47008e-005 to 5.47008e-005
Heightened Def Con from 5.47511e-005 +++++++++to 5.47511e-005
Heightened Def Con from 5.48008e-005 to 5.48008e-005
Heightened Def Con from 5.48008e-005 ++++++++++to 5.48008e-005
Heightened Def Con from 5.48008e-005 ++++++++++to 5.48008e-005
Heightened Def Con from 5.55008e-005 to 5.55008e-005
Heightened Def Con from 5.55511e-005 +++++++++to 5.55511e-005
Heightened Def Con from 5.56008e-005 to 5.56008e-005
Heightened Def Con from 5.63008e-005 to 5.63008e-005
Heightened Def Con from 5.66511e-005 to 5.66511e-005
Heightened Def Con from 5.66511e-005 +++++to 5.66511e-005
Heightened Def Con from 5.66511e-005 to 5.66511e-005
Heightened Def Con from 5.67008e-005 to 5.67008e-005
Heightened Def Con from 5.67008e-005 ++++++++++to 5.67008e-005
Heightened Def Con from 5.67008e-005 ++++++++++to 5.67008e-005
Heightened Def Con from 5.73008e-005 ++++++++to 5.73008e-005
Heightened Def Con from 5.73008e-005 ++++++++++to 5.73008e-005
Heightened Def Con from 5.73511e-005 +++++++++to 5.73511e-005
Heightened Def Con from 5.74008e-005 +++++++++++to 5.74008e-005
Heightened Def Con from 5.81008e-005 to 5.81008e-005
Heightened Def Con from 5.81511e-005 +++++++++to 5.81511e-005
Heightened Def Con from 5.82008e-005 to 5.82008e-005
Heightened Def Con from 5.89008e-005 to 5.89008e-005
Heightened Def Con from 5.92511e-005 ++++to 5.92511e-005
Heightened Def Con from 5.92511e-005 to 5.92511e-005
Heightened Def Con from 5.92511e-005 to 5.92511e-005
Heightened Def Con from 5.93008e-005 ++to 5.93008e-005
Heightened Def Con from 5.93008e-005 +++++++++to 5.93008e-005
Heightened Def Con from 5.95008e-005 to 5.95008e-005
Heightened Def Con from 5.95008e-005 ++++++++++to 5.95008e-005
Heightened Def Con from 5.95008e-005 ++++++++++to 5.95008e-005
Heightened Def Con from 5.97008e-005 to 5.97008e-005
Heightened Def Con from 5.97008e-005 ++++++++++to 5.97008e-005
Heightened Def Con from 5.97008e-005 to 5.97008e-005
Heightened Def Con from 5.97008e-005 +++to 5.97008e-005
Heightened Def Con from 5.97008e-005 +++++++to 5.97008e-005
Heightened Def Con from 5.97008e-005 ++++++to 5.97008e-005
Heightened Def Con from 6.02008e-005 to 6.02008e-005
Heightened Def Con from 6.02511e-005 +++++++++to 6.02511e-005
Heightened Def Con from 6.03008e-005 to 6.03008e-005
Heightened Def Con from 6.05008e-005 +to 6.05008e-005
Heightened Def Con from 6.05008e-005 ++++++to 6.05008e-005
Heightened Def Con from 6.05008e-005 ++++++++++to 6.05008e-005
Heightened Def Con from 6.06511e-005 +++++++++to 6.06511e-005
Heightened Def Con from 6.07008e-005 to 6.07008e-005
Heightened Def Con from 6.07008e-005 to 6.07008e-005
Heightened Def Con from 6.07008e-005 to 6.07008e-005
Heightened Def Con from 6.07008e-005 to 6.07008e-005
Heightened Def Con from 6.07008e-005 to 6.07008e-005
Heightened Def Con from 6.07008e-005 to 6.07008e-005
Heightened Def Con from 6.07008e-005 to 6.07008e-005
Heightened Def Con from 6.07008e-005 to 6.07008e-005
Heightened Def Con from 6.13008e-005 to 6.13008e-005
Heightened Def Con from 6.13008e-005 to 6.13008e-005
Heightened Def Con from 6.14008e-005 to 6.14008e-005
Heightened Def Con from 6.14008e-005 to 6.14008e-005
Heightened Def Con from 6.18511e-005 to 6.18511e-005
Heightened Def Con from 6.19008e-005 to 6.19008e-005
Heightened Def Con from 6.19008e-005 ++++++++++to 6.19008e-005
Heightened Def Con from 6.19008e-005 to 6.19008e-005
Heightened Def Con from 6.21008e-005 +++++++++to 6.21008e-005
Heightened Def Con from 6.21008e-005 ++++++++++to 6.21008e-005
Heightened Def Con from 6.22511e-005 +++++++++++to 6.22511e-005
Heightened Def Con from 6.24008e-005 to 6.24008e-005
Heightened Def Con from 6.28008e-005 +++++++++to 6.28008e-005
Heightened Def Con from 6.29511e-005 to 6.29511e-005
Heightened Def Con from 6.31008e-005 to 6.31008e-005
Heightened Def Con from 6.31008e-005 to 6.31008e-005
Heightened Def Con from 6.31008e-005 to 6.31008e-005
Heightened Def Con from 6.31008e-005 to 6.31008e-005
Heightened Def Con from 6.32008e-005 ++++++++to 6.32008e-005
Heightened Def Con from 6.32511e-005 to 6.32511e-005
Heightened Def Con from 6.33008e-005 ++++to 6.33008e-005
Heightened Def Con from 6.33008e-005 ++++++++++to 6.33008e-005
Heightened Def Con from 6.35008e-005 ++++++++to 6.35008e-005
Heightened Def Con from 6.36511e-005 +++++++++to 6.36511e-005
Heightened Def Con from 6.38008e-005 to 6.38008e-005
Heightened Def Con from 6.38008e-005 +++++++++to 6.38008e-005
Heightened Def Con from 6.40008e-005 to 6.40008e-005
Heightened Def Con from 6.40008e-005 ++++++++++to 6.40008e-005
Heightened Def Con from 6.40008e-005 ++++++++++to 6.40008e-005
Heightened Def Con from 6.40511e-005 ++++++++++to 6.40511e-005
Heightened Def Con from 6.41008e-005 to 6.41008e-005
Heightened Def Con from 6.41511e-005 +++++++to 6.41511e-005
Heightened Def Con from 6.41511e-005 ++++to 6.41511e-005
Heightened Def Con from 6.41511e-005 +++++++to 6.41511e-005
Heightened Def Con from 6.42008e-005 +++++++to 6.42008e-005
Heightened Def Con from 6.42008e-005 to 6.42008e-005
Heightened Def Con from 6.44008e-005 +++++++++to 6.44008e-005
Heightened Def Con from 6.44008e-005 ++++++++++to 6.44008e-005
Heightened Def Con from 6.45511e-005 +++++++++++to 6.45511e-005
Heightened Def Con from 6.46008e-005 to 6.46008e-005
Heightened Def Con from 6.52008e-005 ++++++++to 6.52008e-005
Heightened Def Con from 6.52008e-005 +++++++++to 6.52008e-005
Heightened Def Con from 6.52511e-005 +++++++++to 6.52511e-005
Heightened Def Con from 6.53008e-005 +++++++++++to 6.53008e-005
Heightened Def Con from 6.55008e-005 ++++++++to 6.55008e-005
Heightened Def Con from 6.55008e-005 +++++++++to 6.55008e-005
Heightened Def Con from 6.56511e-005 ++++++++++to 6.56511e-005
Heightened Def Con from 6.58008e-005 to 6.58008e-005
Heightened Def Con from 6.58008e-005 ++++++++++to 6.58008e-005
Heightened Def Con from 6.58008e-005 ++++++++++to 6.58008e-005
Heightened Def Con from 6.59008e-005 to 6.59008e-005
Heightened Def Con from 6.60008e-005 to 6.60008e-005
Heightened Def Con from 6.60008e-005 to 6.60008e-005
Heightened Def Con from 6.63511e-005 to 6.63511e-005
Heightened Def Con from 6.66008e-005 +++++to 6.66008e-005
Heightened Def Con from 6.66008e-005 ++++++++++to 6.66008e-005
Heightened Def Con from 6.66511e-005 ++++++++++to 6.66511e-005
Heightened Def Con from 6.67008e-005 +++++++++to 6.67008e-005
Heightened Def Con from 6.67008e-005 to 6.67008e-005
Heightened Def Con from 6.69008e-005 to 6.69008e-005
Heightened Def Con from 6.69008e-005 to 6.69008e-005
Heightened Def Con from 6.69008e-005 to 6.69008e-005
Heightened Def Con from 6.69008e-005 +++++++++++to 6.69008e-005
Heightened Def Con from 6.69008e-005 +++++++++++to 6.69008e-005
Heightened Def Con from 6.69008e-005 ++++++++++++to 6.69008e-005
Heightened Def Con from 6.70511e-005 ++++++++++++to 6.70511e-005
Heightened Def Con from 6.71008e-005 to 6.71008e-005
Heightened Def Con from 6.71008e-005 ++++++++++to 6.71008e-005
Heightened Def Con from 6.71008e-005 to 6.71008e-005
Heightened Def Con from 6.72008e-005 to 6.72008e-005
Heightened Def Con from 6.72008e-005 to 6.72008e-005
Heightened Def Con from 6.76008e-005 +++++to 6.76008e-005
Heightened Def Con from 6.76008e-005 ++++++++++to 6.76008e-005
Heightened Def Con from 6.76511e-005 to 6.76511e-005
Heightened Def Con from 6.76511e-005 to 6.76511e-005
Heightened Def Con from 6.77008e-005 ++++to 6.77008e-005
Heightened Def Con from 6.77008e-005 to 6.77008e-005
Heightened Def Con from 6.77511e-005 ++++++++++to 6.77511e-005
Heightened Def Con from 6.78008e-005 to 6.78008e-005
Heightened Def Con from 6.78008e-005 to 6.78008e-005
Heightened Def Con from 6.78008e-005 to 6.78008e-005
Heightened Def Con from 6.84008e-005 +++++++++to 6.84008e-005
Heightened Def Con from 6.84511e-005 to 6.84511e-005
Heightened Def Con from 6.88008e-005 to 6.88008e-005
Heightened Def Con from 6.88008e-005 +++++to 6.88008e-005
Heightened Def Con from 6.88008e-005 to 6.88008e-005
Heightened Def Con from 6.88511e-005 to 6.88511e-005
Heightened Def Con from 6.88511e-005 to 6.88511e-005
Heightened Def Con from 6.88511e-005 +++++to 6.88511e-005
Heightened Def Con from 6.88511e-005 +++++++to 6.88511e-005
Heightened Def Con from 6.92008e-005 to 6.92008e-005
Heightened Def Con from 6.92008e-005 +++++to 6.92008e-005
Heightened Def Con from 6.92008e-005 to 6.92008e-005
Heightened Def Con from 6.92511e-005 to 6.92511e-005
Heightened Def Con from 6.92511e-005 to 6.92511e-005
Heightened Def Con from 6.92511e-005 ++++to 6.92511e-005
Heightened Def Con from 6.92511e-005 to 6.92511e-005
Heightened Def Con from 6.93008e-005 to 6.93008e-005
Heightened Def Con from 6.93008e-005 to 6.93008e-005
Heightened Def Con from 6.93008e-005 to 6.93008e-005
Heightened Def Con from 6.93008e-005 to 6.93008e-005
Heightened Def Con from 6.95008e-005 to 6.95008e-005
Heightened Def Con from 6.95008e-005 to 6.95008e-005
Heightened Def Con from 6.96511e-005 +++++++++to 6.96511e-005
Heightened Def Con from 6.98008e-005 to 6.98008e-005
Heightened Def Con from 6.98008e-005 +++++++++to 6.98008e-005
Heightened Def Con from 6.98008e-005 to 6.98008e-005
Heightened Def Con from 6.99008e-005 to 6.99008e-005
Heightened Def Con from 6.99008e-005 to 6.99008e-005
Heightened Def Con from 7.00008e-005 to 7.00008e-005
Heightened Def Con from 7.00008e-005 to 7.00008e-005
Heightened Def Con from 7.00008e-005 +++++++to 7.00008e-005
Heightened Def Con from 7.00008e-005 +++++++to 7.00008e-005
Heightened Def Con from 7.02008e-005 to 7.02008e-005
Heightened Def Con from 7.02008e-005 to 7.02008e-005
Heightened Def Con from 7.02008e-005 to 7.02008e-005
Heightened Def Con from 7.02008e-005 to 7.02008e-005
Heightened Def Con from 7.02008e-005 +++++++++++to 7.02008e-005
Heightened Def Con from 7.02008e-005 to 7.02008e-005
Heightened Def Con from 7.10008e-005 +++++to 7.10008e-005
Heightened Def Con from 7.10008e-005 ++++++++++to 7.10008e-005
Heightened Def Con from 7.10511e-005 to 7.10511e-005
Heightened Def Con from 7.14008e-005 +++++++to 7.14008e-005
Heightened Def Con from 7.14008e-005 ++++++++++to 7.14008e-005
Heightened Def Con from 7.14511e-005 to 7.14511e-005
Heightened Def Con from 7.15008e-005 to 7.15008e-005
Heightened Def Con from 7.15008e-005 ++++++++++to 7.15008e-005
Heightened Def Con from 7.16008e-005 to 7.16008e-005
Heightened Def Con from 7.16008e-005 to 7.16008e-005
Heightened Def Con from 7.20008e-005 to 7.20008e-005
Heightened Def Con from 7.20008e-005 to 7.20008e-005
Heightened Def Con from 7.20511e-005 to 7.20511e-005
Heightened Def Con from 7.25008e-005 ++++++to 7.25008e-005
Heightened Def Con from 7.25008e-005 ++++++++++to 7.25008e-005
Heightened Def Con from 7.26008e-005 ++++++++to 7.26008e-005
Heightened Def Con from 7.37008e-005 to 7.37008e-005
Heightened Def Con from 7.37008e-005 to 7.37008e-005
Heightened Def Con from 7.37008e-005 to 7.37008e-005
Heightened Def Con from 7.37008e-005 ++++++++++to 7.37008e-005
Heightened Def Con from 7.37008e-005 +++++++++to 7.37008e-005
Heightened Def Con from 7.37511e-005 +++++++++to 7.37511e-005
Heightened Def Con from 7.38008e-005 to 7.38008e-005
Heightened Def Con from 7.38008e-005 to 7.38008e-005
Heightened Def Con from 7.38008e-005 to 7.38008e-005
Heightened Def Con from 7.44008e-005 ++++++++to 7.44008e-005
Heightened Def Con from 7.44008e-005 to 7.44008e-005
Heightened Def Con from 7.44511e-005 ++++++++++to 7.44511e-005
Heightened Def Con from 7.45008e-005 to 7.45008e-005
Heightened Def Con from 7.53008e-005 to 7.53008e-005
Heightened Def Con from 7.53008e-005 +++++++++++to 7.53008e-005
Heightened Def Con from 7.54008e-005 ++++++++to 7.54008e-005
Heightened Def Con from 7.54008e-005 to 7.54008e-005
Heightened Def Con from 7.55008e-005 +++++++++to 7.55008e-005
Heightened Def Con from 7.56008e-005 to 7.56008e-005
Heightened Def Con from 7.56008e-005 to 7.56008e-005
Heightened Def Con from 7.56008e-005 ++++++++++to 7.56008e-005
Heightened Def Con from 7.57008e-005 +++++++++to 7.57008e-005
Heightened Def Con from 7.57008e-005 to 7.57008e-005
Heightened Def Con from 7.57511e-005 to 7.57511e-005
Heightened Def Con from 7.58008e-005 to 7.58008e-005
Heightened Def Con from 7.60008e-005 to 7.60008e-005
Heightened Def Con from 7.60008e-005 +++++++to 7.60008e-005
Heightened Def Con from 7.60008e-005 to 7.60008e-005
Heightened Def Con from 7.61511e-005 to 7.61511e-005
Heightened Def Con from 7.63008e-005 ++++++++to 7.63008e-005
Heightened Def Con from 7.63008e-005 +++++++++to 7.63008e-005
Heightened Def Con from 7.64008e-005 ++++++++++to 7.64008e-005
Heightened Def Con from 7.64008e-005 ++++++++++to 7.64008e-005
Heightened Def Con from 7.64511e-005 to 7.64511e-005
Heightened Def Con from 7.65008e-005 +++++to 7.65008e-005
Heightened Def Con from 7.65008e-005 ++++++++++to 7.65008e-005
Heightened Def Con from 7.67008e-005 to 7.67008e-005
Heightened Def Con from 7.67008e-005 to 7.67008e-005
Heightened Def Con from 7.68511e-005 to 7.68511e-005
Heightened Def Con from 7.70008e-005 to 7.70008e-005
Heightened Def Con from 7.70008e-005 to 7.70008e-005
Heightened Def Con from 7.70008e-005 to 7.70008e-005
Heightened Def Con from 7.71008e-005 to 7.71008e-005
Heightened Def Con from 7.71511e-005 to 7.71511e-005
Heightened Def Con from 7.78008e-005 to 7.78008e-005
Heightened Def Con from 7.79008e-005 to 7.79008e-005
Heightened Def Con from 7.79008e-005 to 7.79008e-005
Heightened Def Con from 7.83008e-005 +++++++to 7.83008e-005
Heightened Def Con from 7.83511e-005 ++++++++to 7.83511e-005
Heightened Def Con from 7.83511e-005 to 7.83511e-005
Heightened Def Con from 7.85511e-005 to 7.85511e-005
Heightened Def Con from 7.86008e-005 ++++++++to 7.86008e-005
Heightened Def Con from 7.86008e-005 ++++++++++to 7.86008e-005
Heightened Def Con from 7.94008e-005 to 7.94008e-005
Heightened Def Con from 7.94008e-005 to 7.94008e-005
Heightened Def Con from 7.95008e-005 +++++to 7.95008e-005
Heightened Def Con from 7.95008e-005 ++++++++++to 7.95008e-005
Heightened Def Con from 7.96008e-005 to 7.96008e-005
Heightened Def Con from 7.96008e-005 ++++++++to 7.96008e-005
Heightened Def Con from 7.96008e-005 to 7.96008e-005
Heightened Def Con from 7.96008e-005 to 7.96008e-005
Heightened Def Con from 7.96511e-005 to 7.96511e-005
Heightened Def Con from 7.96511e-005 to 7.96511e-005
Heightened Def Con from 7.96511e-005 +++++to 7.96511e-005
Heightened Def Con from 7.96511e-005 +++++++++++to 7.96511e-005
Heightened Def Con from 7.96511e-005 to 7.96511e-005
Heightened Def Con from 8.00008e-005 to 8.00008e-005
Heightened Def Con from 8.00511e-005 ++++++++++to 8.00511e-005
Heightened Def Con from 8.01008e-005 +++++++++to 8.01008e-005
Heightened Def Con from 8.03008e-005 to 8.03008e-005
Heightened Def Con from 8.03008e-005 to 8.03008e-005
Heightened Def Con from 8.12008e-005 to 8.12008e-005
Heightened Def Con from 8.12008e-005 to 8.12008e-005
Heightened Def Con from 8.12511e-005 ++++++++++to 8.12511e-005
Heightened Def Con from 8.13008e-005 +++++++++to 8.13008e-005
Heightened Def Con from 8.13008e-005 ++++++++to 8.13008e-005
Heightened Def Con from 8.20008e-005 to 8.20008e-005
Heightened Def Con from 8.20008e-005 to 8.20008e-005
Heightened Def Con from 8.20008e-005 to 8.20008e-005
Heightened Def Con from 8.20008e-005 ++++++to 8.20008e-005
Heightened Def Con from 8.26008e-005 +++++to 8.26008e-005
Heightened Def Con from 8.26008e-005 ++++++++++to 8.26008e-005
Heightened Def Con from 8.26008e-005 to 8.26008e-005
Heightened Def Con from 8.26511e-005 to 8.26511e-005
Heightened Def Con from 8.27008e-005 to 8.27008e-005
Heightened Def Con from 8.29008e-005 to 8.29008e-005
Heightened Def Con from 8.29008e-005 ++++++++++to 8.29008e-005
Heightened Def Con from 8.29008e-005 ++++++++++to 8.29008e-005
Heightened Def Con from 8.30511e-005 to 8.30511e-005
Heightened Def Con from 8.32008e-005 to 8.32008e-005
Heightened Def Con from 8.33008e-005 to 8.33008e-005
Heightened Def Con from 8.33008e-005 +++++++++to 8.33008e-005
Heightened Def Con from 8.33008e-005 to 8.33008e-005
Heightened Def Con from 8.33511e-005 to 8.33511e-005
Heightened Def Con from 8.34008e-005 +++++to 8.34008e-005
Heightened Def Con from 8.34008e-005 ++++++++++to 8.34008e-005
Heightened Def Con from 8.36008e-005 to 8.36008e-005
Heightened Def Con from 8.36008e-005 to 8.36008e-005
Heightened Def Con from 8.38008e-005 to 8.38008e-005
Heightened Def Con from 8.40008e-005 to 8.40008e-005
Heightened Def Con from 8.43008e-005 ++++++++++to 8.43008e-005
Heightened Def Con from 8.43008e-005 ++++++++++to 8.43008e-005
Heightened Def Con from 8.44008e-005 to 8.44008e-005
Heightened Def Con from 8.45008e-005 ++++++++to 8.45008e-005
Heightened Def Con from 8.45008e-005 to 8.45008e-005
Heightened Def Con from 8.45008e-005 to 8.45008e-005
Heightened Def Con from 8.45008e-005 to 8.45008e-005
Heightened Def Con from 8.46008e-005 to 8.46008e-005
Heightened Def Con from 8.46008e-005 ++++++++++to 8.46008e-005
Heightened Def Con from 8.46008e-005 ++++++++++to 8.46008e-005
Heightened Def Con from 8.47008e-005 to 8.47008e-005
Heightened Def Con from 8.50008e-005 to 8.50038e-005
Heightened Def Con from 8.52008e-005 to 8.52008e-005
Heightened Def Con from 8.53008e-005 to 8.53008e-005
Heightened Def Con from 8.54008e-005 to 8.54008e-005
Heightened Def Con from 8.54008e-005 to 8.54008e-005
Heightened Def Con from 8.54008e-005 +++++++++to 8.54008e-005
Heightened Def Con from 8.58511e-005 to 8.58511e-005
Heightened Def Con from 8.68008e-005 to 8.68008e-005
Heightened Def Con from 8.68008e-005 ++++++++++to 8.68008e-005
Heightened Def Con from 8.68511e-005 to 8.68511e-005
Heightened Def Con from 8.69008e-005 to 8.69038e-005
Heightened Def Con from 8.71008e-005 ++++++++to 8.71008e-005
Heightened Def Con from 8.71008e-005 to 8.71008e-005
Heightened Def Con from 8.71511e-005 ++++++++++to 8.71511e-005
Heightened Def Con from 8.72511e-005 +++++++to 8.72511e-005
Heightened Def Con from 8.75008e-005 to 8.75008e-005
Heightened Def Con from 8.75008e-005 to 8.75008e-005
Heightened Def Con from 8.75008e-005 to 8.75008e-005
Heightened Def Con from 8.75511e-005 to 8.75511e-005
Heightened Def Con from 8.77008e-005 +++++++++to 8.77008e-005
Heightened Def Con from 8.77008e-005 ++++++++++to 8.77008e-005
Heightened Def Con from 8.77511e-005 ++++++++++to 8.77511e-005
Heightened Def Con from 8.81008e-005 to 8.81008e-005
Heightened Def Con from 8.81511e-005 to 8.81511e-005
Heightened Def Con from 8.82008e-005 +++++++to 8.82008e-005
Heightened Def Con from 8.82008e-005 +++++++++to 8.82008e-005
Heightened Def Con from 8.84008e-005 ++++++++to 8.84008e-005
Heightened Def Con from 8.84008e-005 ++++++++++to 8.84008e-005
Heightened Def Con from 8.85511e-005 +++++++++++to 8.85511e-005
Heightened Def Con from 8.88008e-005 to 8.88038e-005
Heightened Def Con from 8.88511e-005 +++++++++to 8.88511e-005
Heightened Def Con from 8.91008e-005 +++++++++to 8.91008e-005
Heightened Def Con from 8.91008e-005 ++++++++++to 8.91008e-005
Heightened Def Con from 8.91511e-005 ++++++++++to 8.91511e-005
Heightened Def Con from 8.92008e-005 to 8.92008e-005
Heightened Def Con from 8.92008e-005 ++++++++++to 8.92008e-005
Heightened Def Con from 8.92008e-005 to 8.92008e-005
Heightened Def Con from 8.98008e-005 +++++++++to 8.98008e-005
Heightened Def Con from 8.98511e-005 to 8.98511e-005
Heightened Def Con from 9.02008e-005 to 9.02008e-005
Heightened Def Con from 9.02008e-005 to 9.02008e-005
Heightened Def Con from 9.02008e-005 to 9.02008e-005
Heightened Def Con from 9.02511e-005 +++++++++++to 9.02511e-005
Heightened Def Con from 9.03008e-005 to 9.03008e-005
Heightened Def Con from 9.05008e-005 ++++to 9.05008e-005
Heightened Def Con from 9.05008e-005 to 9.05008e-005
Heightened Def Con from 9.06511e-005 to 9.06511e-005
Heightened Def Con from 9.06511e-005 to 9.06511e-005
Heightened Def Con from 9.10008e-005 to 9.10008e-005
Heightened Def Con from 9.10008e-005 to 9.10008e-005
Heightened Def Con from 9.10511e-005 to 9.10511e-005
Heightened Def Con from 9.10511e-005 +++++++to 9.10511e-005
Heightened Def Con from 9.10511e-005 +++++++to 9.10511e-005
Heightened Def Con from 9.11008e-005 ++++++++++to 9.11008e-005
Heightened Def Con from 9.11008e-005 ++++++++++to 9.11008e-005
Heightened Def Con from 9.13008e-005 to 9.13008e-005
Heightened Def Con from 9.13008e-005 ++++++++++to 9.13008e-005
Heightened Def Con from 9.13008e-005 to 9.13008e-005
Heightened Def Con from 9.15008e-005 to 9.15008e-005
Heightened Def Con from 9.15008e-005 ++++++++++to 9.15008e-005
Heightened Def Con from 9.15008e-005 ++++++++++to 9.15008e-005
Heightened Def Con from 9.20008e-005 to 9.20008e-005
Heightened Def Con from 9.22008e-005 ++++++to 9.22008e-005
Heightened Def Con from 9.22008e-005 ++++++++++to 9.22008e-005
Heightened Def Con from 9.23511e-005 ++++++++++to 9.23511e-005
Heightened Def Con from 9.25008e-005 to 9.25008e-005
Heightened Def Con from 9.25008e-005 to 9.25008e-005
Heightened Def Con from 9.25008e-005 to 9.25008e-005
Heightened Def Con from 9.26008e-005 to 9.26008e-005
Heightened Def Con from 9.27008e-005 to 9.27008e-005
Heightened Def Con from 9.27008e-005 to 9.27008e-005
Heightened Def Con from 9.30511e-005 ++++++++++to 9.30511e-005
Heightened Def Con from 9.32008e-005 to 9.32008e-005
Heightened Def Con from 9.32008e-005 +++++++to 9.32008e-005
Heightened Def Con from 9.32008e-005 to 9.32008e-005
Heightened Def Con from 9.33008e-005 to 9.33008e-005
Heightened Def Con from 9.34008e-005 +++++++++to 9.34008e-005
Heightened Def Con from 9.34008e-005 +++++++to 9.34008e-005
Heightened Def Con from 9.34511e-005 ++++to 9.34511e-005
Heightened Def Con from 9.35008e-005 to 9.35008e-005
Heightened Def Con from 9.35008e-005 ++++++++++to 9.35008e-005
Heightened Def Con from 9.35008e-005 to 9.35008e-005
Heightened Def Con from 9.37008e-005 to 9.37008e-005
Heightened Def Con from 9.38511e-005 to 9.38511e-005
Heightened Def Con from 9.38511e-005 to 9.38511e-005
Heightened Def Con from 9.38511e-005 +++++to 9.38511e-005
Heightened Def Con from 9.38511e-005 +++++++to 9.38511e-005
Heightened Def Con from 9.40008e-005 to 9.40008e-005
Heightened Def Con from 9.40008e-005 ++++++++to 9.40008e-005
Heightened Def Con from 9.40008e-005 to 9.40008e-005
Heightened Def Con from 9.40008e-005 to 9.40008e-005
Heightened Def Con from 9.40008e-005 to 9.40008e-005
Heightened Def Con from 9.40008e-005 to 9.40008e-005
Heightened Def Con from 9.40008e-005 to 9.40008e-005
Heightened Def Con from 9.41008e-005 to 9.41008e-005
Heightened Def Con from 9.41008e-005 to 9.41008e-005
Heightened Def Con from 9.41511e-005 +++++++++to 9.41511e-005
Heightened Def Con from 9.45008e-005 to 9.45008e-005
Heightened Def Con from 9.45008e-005 +++++++++to 9.45008e-005
Heightened Def Con from 9.45511e-005 ++++++++++to 9.45511e-005
Heightened Def Con from 9.46511e-005 +++++++++to 9.46511e-005
Heightened Def Con from 9.47008e-005 +++++++to 9.47008e-005
Heightened Def Con from 9.47008e-005 ++++++++++to 9.47008e-005
Heightened Def Con from 9.53008e-005 +++++++++to 9.53008e-005
Heightened Def Con from 9.53008e-005 to 9.53008e-005
Heightened Def Con from 9.53511e-005 ++++++++++to 9.53511e-005
Heightened Def Con from 9.54008e-005 to 9.54008e-005
Heightened Def Con from 9.54008e-005 to 9.54008e-005
Heightened Def Con from 9.60008e-005 to 9.60008e-005
Heightened Def Con from 9.60511e-005 to 9.60511e-005
Heightened Def Con from 9.61008e-005 to 9.61008e-005
Heightened Def Con from 9.61008e-005 to 9.61008e-005
Heightened Def Con from 9.61008e-005 to 9.61008e-005
Heightened Def Con from 9.67008e-005 ++++++to 9.67008e-005
Heightened Def Con from 9.67008e-005 ++++++++++to 9.67008e-005
Heightened Def Con from 9.67511e-005 to 9.67511e-005
Heightened Def Con from 9.68008e-005 to 9.68008e-005
Heightened Def Con from 9.68008e-005 ++++++++++to 9.68008e-005
Heightened Def Con from 9.70008e-005 to 9.70008e-005
Heightened Def Con from 9.70008e-005 to 9.70008e-005
Heightened Def Con from 9.70008e-005 to 9.70008e-005
Heightened Def Con from 9.70008e-005 to 9.70008e-005
Heightened Def Con from 9.71511e-005 to 9.71511e-005
Heightened Def Con from 9.73008e-005 to 9.73008e-005
Heightened Def Con from 9.73008e-005 +++++++++to 9.73008e-005
Heightened Def Con from 9.73008e-005 to 9.73008e-005
Heightened Def Con from 9.74008e-005 to 9.74008e-005
Heightened Def Con from 9.74008e-005 to 9.74008e-005
Heightened Def Con from 9.75008e-005 to 9.75008e-005
Heightened Def Con from 9.75008e-005 to 9.75008e-005
Heightened Def Con from 9.76008e-005 to 9.76008e-005
Heightened Def Con from 9.76008e-005 to 9.76008e-005
Heightened Def Con from 9.77008e-005 +++++++to 9.77008e-005
Heightened Def Con from 9.77008e-005 ++++++++to 9.77008e-005
Heightened Def Con from 9.77511e-005 +++++++to 9.77511e-005
Heightened Def Con from 9.81008e-005 to 9.81008e-005
Heightened Def Con from 9.81511e-005 +++++++++to 9.81511e-005
Heightened Def Con from 9.82008e-005 +++++++++++to 9.82008e-005
Heightened Def Con from 9.82008e-005 ++++++++to 9.82008e-005
Heightened Def Con from 9.82008e-005 to 9.82008e-005
Heightened Def Con from 9.84008e-005 to 9.84008e-005
Heightened Def Con from 9.85511e-005 +++++++++++to 9.85511e-005
Heightened Def Con from 9.87008e-005 +++++++to 9.87008e-005
Heightened Def Con from 9.87008e-005 ++++++++++to 9.87008e-005
Heightened Def Con from 9.88008e-005 to 9.88008e-005
Heightened Def Con from 9.88008e-005 to 9.88008e-005
Heightened Def Con from 9.88008e-005 to 9.88008e-005
Heightened Def Con from 9.88511e-005 to 9.88511e-005
Heightened Def Con from 9.89008e-005 to 9.89008e-005
Heightened Def Con from 9.95008e-005 +++++++to 9.95008e-005
Heightened Def Con from 9.95008e-005 ++++++++++to 9.95008e-005
Heightened Def Con from 9.95511e-005 to 9.95511e-005
Heightened Def Con from 9.96008e-005 to 9.96008e-005
Heightened Def Con from 9.96008e-005 to 9.96008e-005
Heightened Def Con from 9.96008e-005 to 9.96008e-005
Heightened Def Con from 9.98008e-005 to 9.98008e-005
Heightened Def Con from 9.99511e-005 to 9.99511e-005

Date: Sun Oct 24 14:52:22 2021
Total elapsed time: 4.831 seconds.

tnom = 27
temp = 27
method = modified trap
totiter = 1051898
traniter = 1051872
tranpoints = 150797
accept = 74563
rejected = 80984
matrix size = 54
fillins = 40
solver = Normal
Matrix Compiler1: 4.70 KB object code size  0.8/0.5/[0.6]
Matrix Compiler2: 4.93 KB object code size  0.4/1.1/[0.3]

