Circuit: * D:\src\elektronik\SignalGenerator\Sim\PowerSupply.asc

Error on line 14 : c1 +12v 0 2200µf rser=0,1
	 Unknown parameter "1"
.OP point found by inspection.

Date: Sat Oct 23 11:45:26 2021
Total elapsed time: 0.150 seconds.

tnom = 27
temp = 27
method = modified trap
totiter = 15620
traniter = 15620
tranpoints = 5645
accept = 4201
rejected = 1444
matrix size = 16
fillins = 10
solver = Normal
Matrix Compiler1: 1.13 KB object code size  0.2/0.1/[0.1]
Matrix Compiler2: 1.28 KB object code size  0.1/0.2/[0.1]

